&HEAD CHID='cone_geom_vv_6_50', TITLE='Cone Calorimeter simulation setup vertical - example PMMA with 6mm thickness and 50kW/m2 heat flux'  /

MESH ID='MESH01', IJK=45,45,45, XB=-0.15,0.15,-0.2,0.1,-0.15,0.15/
&MESH ID='MESH01', IJK=15,45,15, XB=-0.15,-0.05,-0.2,0.1,-0.15,-0.05/
&MESH ID='MESH02', IJK=15,45,15, XB=-0.15,-0.05,-0.2,0.1,-0.05, 0.05/
&MESH ID='MESH03', IJK=15,45,15, XB=-0.15,-0.05,-0.2,0.1, 0.05, 0.15/
&MESH ID='MESH04', IJK=15,45,15, XB=-0.05,0.05,-0.2,0.1,-0.15,-0.05/
&MESH ID='MESH05', IJK=15,45,15, XB=-0.05,0.05,-0.2,0.1,-0.05, 0.05/
&MESH ID='MESH06', IJK=15,45,15, XB=-0.05,0.05,-0.2,0.1,0.05, 0.15/
&MESH ID='MESH07', IJK=15,45,15, XB=0.05,0.15,-0.2,0.1,-0.15,-0.05/
&MESH ID='MESH08', IJK=15,45,15, XB=0.05,0.15,-0.2,0.1,-0.05, 0.05/
&MESH ID='MESH09', IJK=15,45,15, XB=0.05,0.15,-0.2,0.1,0.05, 0.15/

&TIME T_BEGIN = -5, T_END= 1200/
&DUMP NFRAMES=1205, DT_RESTART=300, DT_BNDF=5, DT_SLCF=10, DT_DEVC=1 /

&MISC SIMULATION_MODE='LES' RESTART=F  BNDF_DEFAULT=F / 
&RADI NUMBER_RADIATION_ANGLES=300, QR_CLIP = 1, C_MIN = 0.1, C_MAX = 100 /

&SPEC ID='MMA', FORMULA='C5O2H8', RADCAL_ID='MMA', RAMP_CP='MMA CP'/
&RAMP ID='MMA CP', T=114, F=1.48 / https://www.chemeo.com/cid/57-301-4/Methyl-methacrylate
&RAMP ID='MMA CP', T=300, F=1.90 /
&REAC FUEL='MMA', SOOT_YIELD=0.022, CO_YIELD=0.010, RADIATIVE_FRACTION=0.33, HEAT_OF_COMBUSTION=25610 / entnommen aus https://github.com/firemodels/fds/blob/master/Validation/NIST_NRC_Parallel_Panels/FDS_Input_Files/PMMA_60_kW_1_cm.fds


***** Open Vents ********************

&VENT MB = 'XMIN',SURF_ID = 'OPEN'/
&VENT MB = 'XMAX',SURF_ID = 'OPEN'/
&VENT MB = 'YMIN',SURF_ID = 'OPEN'/
&VENT MB = 'YMAX',SURF_ID = 'OPEN'/
&VENT MB = 'ZMIN',SURF_ID = 'OPEN'/
&VENT MB = 'ZMAX',SURF_ID = 'OPEN'/

################################
#### Materials and Surfaces ####
################################

***** Surfaces ********************

https://nvlpubs.nist.gov/nistpubs/Legacy/IR/nbsir82-2611.pdf
From Babrauskas's report:
75 kW/m2: 841 ˚C  emis: 1.359
50 kW/m2: 744 ˚C  emis: 1.276
25 kW/m2: 592 ˚C  emis: 1.198
Estimated:
65 kW/m2: 804 ˚C

estimated:
25 kW/m² -> 634 °C
50 kW/m² -> 804 °C
75 kW/m² -> 918 °C

&SURF ID         = 'ConeHeater'
      RGB        = 255,31,5
      EMISSIVITY = 0.9
      TMP_FRONT  = 804
      RAMP_T     = 'CONE' /

&RAMP ID='CONE', T=-1.0, F=0/
&RAMP ID='CONE', T=0, F=1/

&MATL ID='STEEL' FYI='Eurocode 3' DENSITY=7850.0
      CONDUCTIVITY_RAMP='STEEL_CONDUCTIVITY_RAMP'
      SPECIFIC_HEAT_RAMP='STEEL_SPECIFIC_HEAT_RAMP' /
&RAMP ID='STEEL_SPECIFIC_HEAT_RAMP' T=0.0 F=0.425 /
&RAMP ID='STEEL_SPECIFIC_HEAT_RAMP' T=20.0 F=0.439802 /
&RAMP ID='STEEL_SPECIFIC_HEAT_RAMP' T=100.0 F=0.48762 /
&RAMP ID='STEEL_SPECIFIC_HEAT_RAMP' T=200.0 F=0.52976 /
&RAMP ID='STEEL_SPECIFIC_HEAT_RAMP' T=300.0 F=0.56474 /
&RAMP ID='STEEL_SPECIFIC_HEAT_RAMP' T=400.0 F=0.60588 /
&RAMP ID='STEEL_SPECIFIC_HEAT_RAMP' T=500.0 F=0.6665 /
&RAMP ID='STEEL_SPECIFIC_HEAT_RAMP' T=600.0 F=0.75992 /
&RAMP ID='STEEL_SPECIFIC_HEAT_RAMP' T=600.01 F=0.760224 /
&RAMP ID='STEEL_SPECIFIC_HEAT_RAMP' T=620.0 F=0.776186 /
&RAMP ID='STEEL_SPECIFIC_HEAT_RAMP' T=640.0 F=0.798673 /
&RAMP ID='STEEL_SPECIFIC_HEAT_RAMP' T=660.0 F=0.832692 /
&RAMP ID='STEEL_SPECIFIC_HEAT_RAMP' T=680.0 F=0.890172 /
&RAMP ID='STEEL_SPECIFIC_HEAT_RAMP' T=700.0 F=1.008158 /
&RAMP ID='STEEL_SPECIFIC_HEAT_RAMP' T=720.0 F=1.388333 /
&RAMP ID='STEEL_SPECIFIC_HEAT_RAMP' T=735.0 F=5.0 /
&RAMP ID='STEEL_SPECIFIC_HEAT_RAMP' T=735.01 F=4.98889 /
&RAMP ID='STEEL_SPECIFIC_HEAT_RAMP' T=740.0 F=2.525 /
&RAMP ID='STEEL_SPECIFIC_HEAT_RAMP' T=760.0 F=1.159483 /
&RAMP ID='STEEL_SPECIFIC_HEAT_RAMP' T=780.0 F=0.908673 /
! ... 10 like lines cut
&RAMP ID='STEEL_CONDUCTIVITY_RAMP' T=0.0 F=54.0 /
&RAMP ID='STEEL_CONDUCTIVITY_RAMP' T=20.0 F=53.334 /
&RAMP ID='STEEL_CONDUCTIVITY_RAMP' T=100.0 F=50.67 /
&RAMP ID='STEEL_CONDUCTIVITY_RAMP' T=200.0 F=47.34 /
&RAMP ID='STEEL_CONDUCTIVITY_RAMP' T=300.0 F=44.01 /
&RAMP ID='STEEL_CONDUCTIVITY_RAMP' T=400.0 F=40.68 /
&RAMP ID='STEEL_CONDUCTIVITY_RAMP' T=500.0 F=37.35 /
&RAMP ID='STEEL_CONDUCTIVITY_RAMP' T=600.0 F=34.02 /
&RAMP ID='STEEL_CONDUCTIVITY_RAMP' T=700.0 F=30.69 /
&RAMP ID='STEEL_CONDUCTIVITY_RAMP' T=800.0 F=27.36 /
&RAMP ID='STEEL_CONDUCTIVITY_RAMP' T=900.0 F=27.3 /
&RAMP ID='STEEL_CONDUCTIVITY_RAMP' T=1000.0 F=27.3 /
&RAMP ID='STEEL_CONDUCTIVITY_RAMP' T=1100.0 F=27.3 /
&RAMP ID='STEEL_CONDUCTIVITY_RAMP' T=1200.0 F=27.3 /

# with StainlessSteel in heater geometry interactions that lead to cancellation
SURF ID='StainlessSteel' 
      RGB=88,86,102 
      BACKING='EXPOSED' 
      MATL_ID(1,1)='STEEL'
      THICKNESS(1)=0.002 
      MATL_MASS_FRACTION(1,1)=1.0 /

&SURF ID='StainlessSteel' RGB=88,86,102 /

&MATL ID = 'PMMA', DENSITY = 1139.2407407407409, CONDUCTIVITY_RAMP = 'k_PMMA',
      SPECIFIC_HEAT_RAMP = 'cp_PMMA', EMISSIVITY = 0.96, ABSORPTION_COEFFICIENT = 2870 /

&RAMP ID='k_PMMA', T= 20., F=0.160 /
&RAMP ID='k_PMMA', T=122., F=0.160 /
&RAMP ID='k_PMMA', T=500., F=0.015 /

&RAMP ID='cp_PMMA', T= 20., F=1.05 /
&RAMP ID='cp_PMMA', T=122., F=1.90 /
&RAMP ID='cp_PMMA', T=500., F=3.22 /

MATL ID            = 'PROMATECT'
      EMISSIVITY    = 0.9
      DENSITY       = 450.
      SPECIFIC_HEAT = 0.95
      CONDUCTIVITY_RAMP = 'k_PROMAT LS' /

RAMP ID='k_PROMAT LS', T= 20., F=0.08 /
RAMP ID='k_PROMAT LS', T=200., F=0.10 /
RAMP ID='k_PROMAT LS', T=400., F=0.11 /

&MATL ID = 'Backing', DENSITY = 340, CONDUCTIVITY_RAMP = 'cond_fb', SPECIFIC_HEAT = 1.1 /

&RAMP ID = 'cond_fb', T = 000., F = 0.0462 / extrapoliert (Exponentialfunktion)
&RAMP ID = 'cond_fb', T = 200., F = 0.0611 / extrapoliert (Exponentialfunktion)
&RAMP ID = 'cond_fb', T = 400., F = 0.082 /
&RAMP ID = 'cond_fb', T = 600., F = 0.105 /
&RAMP ID = 'cond_fb', T = 800., F = 0.140 /
&RAMP ID = 'cond_fb', T = 1000, F = 0.189 /

##################
#### Geometry ####
##################

*** Specimen ***

VENT SURF_ID='StainlessSteel', XB=-0.05,0.05,-0.05,0.05,0.0,0.0/ Sample
  
&SURF ID                      = 'PMMA_CN',
      FYI                     = 'Parameter from Cone_C5_PMMACN_h_rep99',
      RGB                     = 0,0,0 ,
      CELL_SIZE_FACTOR        = 1.0,
      STRETCH_FACTOR(1:1)     = 1.0,
      BACKING                 = 'EXPOSED',
      THICKNESS(1:2)          = 0.006, 0.042,
      MATL_ID(1,1:1)          = 'PMMA',
      MATL_ID(2,1:1)          = 'Backing',
      HRRPUA                  = 1.0,
      RAMP_Q                  = 'CONE_6_25', 'CONE_6_75', 'CONE_10_25', 'CONE_10_50', 'CONE_10_75',
      REFERENCE_HEAT_FLUX     = 25,75,25,50,75,
      REFERENCE_THICKNESS     = 0.006, 0.006, 0.01, 0.01, 0.01,
      IGNITION_TEMPERATURE    = 340.7745079335275,
      HEAT_OF_VAPORIZATION    = 2029.3588585067885 /

&SURF ID                      = 'PMMA_back',
      COLOR                   = 'BEIGE',
      BACKING                 = 'EXPOSED',
      THICKNESS(1:2)          = 0.042, 0.006,
      MATL_ID(1,1:1)          = 'Backing',
      MATL_ID(2,1:1)          = 'PMMA' /

&OBST XB = -0.05,0.05, 0.0, 0.04, -0.05,0.05, SURF_ID6='StainlessSteel', 'StainlessSteel','PMMA_CN','StainlessSteel','StainlessSteel', 'StainlessSteel' BNDF_OBST=.TRUE., /SURF_ID6 = 'INERT','INERT','PMMA_CN','INERT','INERT','INERT' / BNDF_OBST=.TRUE.,BNDF_FACE(2)=.TRUE.,

&RAMP ID = 'CONE_6_25', T = 0.000, F = 0.000 / PMMA_CN_6mm_Vertical
&RAMP ID = 'CONE_6_25', T = 0.100, F = 237.605 / PMMA_CN_6mm_Vertical
&RAMP ID = 'CONE_6_25', T = 2.300, F = 258.732 / PMMA_CN_6mm_Vertical
&RAMP ID = 'CONE_6_25', T = 6.700, F = 285.691 / PMMA_CN_6mm_Vertical
&RAMP ID = 'CONE_6_25', T = 10.900, F = 300.661 / PMMA_CN_6mm_Vertical
&RAMP ID = 'CONE_6_25', T = 14.000, F = 306.662 / PMMA_CN_6mm_Vertical
&RAMP ID = 'CONE_6_25', T = 23.400, F = 317.035 / PMMA_CN_6mm_Vertical
&RAMP ID = 'CONE_6_25', T = 31.800, F = 319.076 / PMMA_CN_6mm_Vertical
&RAMP ID = 'CONE_6_25', T = 41.900, F = 333.866 / PMMA_CN_6mm_Vertical
&RAMP ID = 'CONE_6_25', T = 64.000, F = 342.331 / PMMA_CN_6mm_Vertical
&RAMP ID = 'CONE_6_25', T = 74.100, F = 351.604 / PMMA_CN_6mm_Vertical
&RAMP ID = 'CONE_6_25', T = 101.100, F = 360.910 / PMMA_CN_6mm_Vertical
&RAMP ID = 'CONE_6_25', T = 112.000, F = 372.579 / PMMA_CN_6mm_Vertical
&RAMP ID = 'CONE_6_25', T = 120.600, F = 374.152 / PMMA_CN_6mm_Vertical
&RAMP ID = 'CONE_6_25', T = 135.900, F = 384.464 / PMMA_CN_6mm_Vertical
&RAMP ID = 'CONE_6_25', T = 146.200, F = 386.249 / PMMA_CN_6mm_Vertical
&RAMP ID = 'CONE_6_25', T = 157.200, F = 399.561 / PMMA_CN_6mm_Vertical
&RAMP ID = 'CONE_6_25', T = 174.300, F = 402.836 / PMMA_CN_6mm_Vertical
&RAMP ID = 'CONE_6_25', T = 181.900, F = 412.610 / PMMA_CN_6mm_Vertical
&RAMP ID = 'CONE_6_25', T = 191.300, F = 417.809 / PMMA_CN_6mm_Vertical
! ... 28 like lines cut


&RAMP ID = 'CONE_6_50', T = 0.000, F = 0.000 / PMMA_CN_6mm_Vertical
&RAMP ID = 'CONE_6_50', T = 0.100, F = 329.009 / PMMA_CN_6mm_Vertical
&RAMP ID = 'CONE_6_50', T = 1.700, F = 370.135 / PMMA_CN_6mm_Vertical
&RAMP ID = 'CONE_6_50', T = 2.500, F = 385.990 / PMMA_CN_6mm_Vertical
&RAMP ID = 'CONE_6_50', T = 6.500, F = 433.474 / PMMA_CN_6mm_Vertical
&RAMP ID = 'CONE_6_50', T = 8.100, F = 446.236 / PMMA_CN_6mm_Vertical
&RAMP ID = 'CONE_6_50', T = 12.800, F = 469.164 / PMMA_CN_6mm_Vertical
&RAMP ID = 'CONE_6_50', T = 28.300, F = 518.924 / PMMA_CN_6mm_Vertical
&RAMP ID = 'CONE_6_50', T = 37.700, F = 538.433 / PMMA_CN_6mm_Vertical
&RAMP ID = 'CONE_6_50', T = 43.000, F = 555.654 / PMMA_CN_6mm_Vertical
&RAMP ID = 'CONE_6_50', T = 47.400, F = 565.831 / PMMA_CN_6mm_Vertical
&RAMP ID = 'CONE_6_50', T = 62.100, F = 572.556 / PMMA_CN_6mm_Vertical
&RAMP ID = 'CONE_6_50', T = 73.400, F = 595.207 / PMMA_CN_6mm_Vertical
&RAMP ID = 'CONE_6_50', T = 82.000, F = 604.081 / PMMA_CN_6mm_Vertical
&RAMP ID = 'CONE_6_50', T = 86.900, F = 605.113 / PMMA_CN_6mm_Vertical
&RAMP ID = 'CONE_6_50', T = 92.800, F = 616.123 / PMMA_CN_6mm_Vertical
&RAMP ID = 'CONE_6_50', T = 97.300, F = 620.099 / PMMA_CN_6mm_Vertical
&RAMP ID = 'CONE_6_50', T = 108.100, F = 645.071 / PMMA_CN_6mm_Vertical
&RAMP ID = 'CONE_6_50', T = 118.300, F = 651.174 / PMMA_CN_6mm_Vertical
&RAMP ID = 'CONE_6_50', T = 122.200, F = 659.676 / PMMA_CN_6mm_Vertical
! ... 28 like lines cut


&RAMP ID = 'CONE_6_75', T = 0.000, F = 0.000 / PMMA_CN_6mm_Vertical
&RAMP ID = 'CONE_6_75', T = 0.100, F = 396.211 / PMMA_CN_6mm_Vertical
&RAMP ID = 'CONE_6_75', T = 3.400, F = 538.765 / PMMA_CN_6mm_Vertical
&RAMP ID = 'CONE_6_75', T = 4.500, F = 577.670 / PMMA_CN_6mm_Vertical
&RAMP ID = 'CONE_6_75', T = 5.100, F = 592.182 / PMMA_CN_6mm_Vertical
&RAMP ID = 'CONE_6_75', T = 8.400, F = 653.564 / PMMA_CN_6mm_Vertical
&RAMP ID = 'CONE_6_75', T = 9.900, F = 672.029 / PMMA_CN_6mm_Vertical
&RAMP ID = 'CONE_6_75', T = 14.900, F = 694.789 / PMMA_CN_6mm_Vertical
&RAMP ID = 'CONE_6_75', T = 24.400, F = 711.773 / PMMA_CN_6mm_Vertical
&RAMP ID = 'CONE_6_75', T = 29.700, F = 735.530 / PMMA_CN_6mm_Vertical
&RAMP ID = 'CONE_6_75', T = 39.300, F = 755.501 / PMMA_CN_6mm_Vertical
&RAMP ID = 'CONE_6_75', T = 44.500, F = 776.302 / PMMA_CN_6mm_Vertical
&RAMP ID = 'CONE_6_75', T = 63.600, F = 789.810 / PMMA_CN_6mm_Vertical
&RAMP ID = 'CONE_6_75', T = 69.500, F = 816.398 / PMMA_CN_6mm_Vertical
&RAMP ID = 'CONE_6_75', T = 73.300, F = 825.247 / PMMA_CN_6mm_Vertical
&RAMP ID = 'CONE_6_75', T = 79.800, F = 830.057 / PMMA_CN_6mm_Vertical
&RAMP ID = 'CONE_6_75', T = 85.000, F = 846.142 / PMMA_CN_6mm_Vertical
&RAMP ID = 'CONE_6_75', T = 88.600, F = 853.454 / PMMA_CN_6mm_Vertical
&RAMP ID = 'CONE_6_75', T = 94.900, F = 853.845 / PMMA_CN_6mm_Vertical
&RAMP ID = 'CONE_6_75', T = 99.400, F = 860.651 / PMMA_CN_6mm_Vertical
! ... 28 like lines cut


&RAMP ID = 'CONE_10_25', T = 0.000, F = 0.000 / PMMA_CN_10mm_Vertical
&RAMP ID = 'CONE_10_25', T = 0.100, F = 254.576 / PMMA_CN_10mm_Vertical
&RAMP ID = 'CONE_10_25', T = 3.100, F = 263.710 / PMMA_CN_10mm_Vertical
&RAMP ID = 'CONE_10_25', T = 8.200, F = 271.967 / PMMA_CN_10mm_Vertical
&RAMP ID = 'CONE_10_25', T = 29.800, F = 296.634 / PMMA_CN_10mm_Vertical
&RAMP ID = 'CONE_10_25', T = 42.500, F = 300.324 / PMMA_CN_10mm_Vertical
&RAMP ID = 'CONE_10_25', T = 70.600, F = 319.401 / PMMA_CN_10mm_Vertical
&RAMP ID = 'CONE_10_25', T = 88.400, F = 313.279 / PMMA_CN_10mm_Vertical
&RAMP ID = 'CONE_10_25', T = 125.100, F = 330.048 / PMMA_CN_10mm_Vertical
&RAMP ID = 'CONE_10_25', T = 137.900, F = 330.548 / PMMA_CN_10mm_Vertical
&RAMP ID = 'CONE_10_25', T = 148.300, F = 336.963 / PMMA_CN_10mm_Vertical
&RAMP ID = 'CONE_10_25', T = 162.600, F = 335.978 / PMMA_CN_10mm_Vertical
&RAMP ID = 'CONE_10_25', T = 180.000, F = 343.119 / PMMA_CN_10mm_Vertical
&RAMP ID = 'CONE_10_25', T = 189.800, F = 352.639 / PMMA_CN_10mm_Vertical
&RAMP ID = 'CONE_10_25', T = 214.900, F = 345.443 / PMMA_CN_10mm_Vertical
&RAMP ID = 'CONE_10_25', T = 225.400, F = 353.574 / PMMA_CN_10mm_Vertical
&RAMP ID = 'CONE_10_25', T = 237.600, F = 350.766 / PMMA_CN_10mm_Vertical
&RAMP ID = 'CONE_10_25', T = 247.600, F = 359.134 / PMMA_CN_10mm_Vertical
&RAMP ID = 'CONE_10_25', T = 269.500, F = 360.487 / PMMA_CN_10mm_Vertical
&RAMP ID = 'CONE_10_25', T = 323.500, F = 380.446 / PMMA_CN_10mm_Vertical
! ... 28 like lines cut


&RAMP ID = 'CONE_10_50', T = 0.000, F = 0.000 / PMMA_CN_10mm_Vertical
&RAMP ID = 'CONE_10_50', T = 0.100, F = 372.944 / PMMA_CN_10mm_Vertical
&RAMP ID = 'CONE_10_50', T = 1.200, F = 386.787 / PMMA_CN_10mm_Vertical
&RAMP ID = 'CONE_10_50', T = 4.600, F = 422.341 / PMMA_CN_10mm_Vertical
&RAMP ID = 'CONE_10_50', T = 8.500, F = 450.834 / PMMA_CN_10mm_Vertical
&RAMP ID = 'CONE_10_50', T = 14.600, F = 477.655 / PMMA_CN_10mm_Vertical
&RAMP ID = 'CONE_10_50', T = 31.000, F = 515.397 / PMMA_CN_10mm_Vertical
&RAMP ID = 'CONE_10_50', T = 39.100, F = 524.517 / PMMA_CN_10mm_Vertical
&RAMP ID = 'CONE_10_50', T = 48.700, F = 554.948 / PMMA_CN_10mm_Vertical
&RAMP ID = 'CONE_10_50', T = 64.300, F = 559.161 / PMMA_CN_10mm_Vertical
&RAMP ID = 'CONE_10_50', T = 115.100, F = 588.690 / PMMA_CN_10mm_Vertical
&RAMP ID = 'CONE_10_50', T = 126.000, F = 607.833 / PMMA_CN_10mm_Vertical
&RAMP ID = 'CONE_10_50', T = 138.700, F = 613.838 / PMMA_CN_10mm_Vertical
&RAMP ID = 'CONE_10_50', T = 154.400, F = 631.597 / PMMA_CN_10mm_Vertical
&RAMP ID = 'CONE_10_50', T = 161.000, F = 631.083 / PMMA_CN_10mm_Vertical
&RAMP ID = 'CONE_10_50', T = 170.300, F = 646.048 / PMMA_CN_10mm_Vertical
&RAMP ID = 'CONE_10_50', T = 179.900, F = 640.074 / PMMA_CN_10mm_Vertical
&RAMP ID = 'CONE_10_50', T = 190.000, F = 643.327 / PMMA_CN_10mm_Vertical
&RAMP ID = 'CONE_10_50', T = 200.700, F = 654.766 / PMMA_CN_10mm_Vertical
&RAMP ID = 'CONE_10_50', T = 213.700, F = 654.227 / PMMA_CN_10mm_Vertical
! ... 28 like lines cut


&RAMP ID = 'CONE_10_75', T = 0.000, F = 0.000 / PMMA_CN_10mm_Vertical
&RAMP ID = 'CONE_10_75', T = 0.100, F = 498.413 / PMMA_CN_10mm_Vertical
&RAMP ID = 'CONE_10_75', T = 3.200, F = 589.137 / PMMA_CN_10mm_Vertical
&RAMP ID = 'CONE_10_75', T = 5.300, F = 630.525 / PMMA_CN_10mm_Vertical
&RAMP ID = 'CONE_10_75', T = 7.400, F = 662.397 / PMMA_CN_10mm_Vertical
&RAMP ID = 'CONE_10_75', T = 12.800, F = 717.491 / PMMA_CN_10mm_Vertical
&RAMP ID = 'CONE_10_75', T = 17.700, F = 739.764 / PMMA_CN_10mm_Vertical
&RAMP ID = 'CONE_10_75', T = 27.100, F = 764.570 / PMMA_CN_10mm_Vertical
&RAMP ID = 'CONE_10_75', T = 38.300, F = 775.458 / PMMA_CN_10mm_Vertical
&RAMP ID = 'CONE_10_75', T = 45.000, F = 793.760 / PMMA_CN_10mm_Vertical
&RAMP ID = 'CONE_10_75', T = 62.500, F = 804.172 / PMMA_CN_10mm_Vertical
&RAMP ID = 'CONE_10_75', T = 72.700, F = 803.164 / PMMA_CN_10mm_Vertical
&RAMP ID = 'CONE_10_75', T = 83.600, F = 828.332 / PMMA_CN_10mm_Vertical
&RAMP ID = 'CONE_10_75', T = 92.400, F = 830.690 / PMMA_CN_10mm_Vertical
&RAMP ID = 'CONE_10_75', T = 101.900, F = 851.802 / PMMA_CN_10mm_Vertical
&RAMP ID = 'CONE_10_75', T = 115.400, F = 857.960 / PMMA_CN_10mm_Vertical
&RAMP ID = 'CONE_10_75', T = 122.500, F = 851.603 / PMMA_CN_10mm_Vertical
&RAMP ID = 'CONE_10_75', T = 132.700, F = 882.484 / PMMA_CN_10mm_Vertical
&RAMP ID = 'CONE_10_75', T = 144.700, F = 891.108 / PMMA_CN_10mm_Vertical
&RAMP ID = 'CONE_10_75', T = 153.000, F = 883.328 / PMMA_CN_10mm_Vertical
! ... 28 like lines cut



*** Heater GEOM ***
&MOVE ID='spin90', ROTATION_ANGLE=90., X0=0., Y0=0., Z0=0., AXIS=1,0,0 /
<HeaterAssembly_LowRes>
! GEOM Vertices: 480 | Faces: 960
&GEOM ID='Heater_LowRes' SURF_ID='ConeHeater','StainlessSteel' MOVE_ID = 'spin90'
      VERTS=-0.000000,0.098469,0.027000,-0.000000,0.054995,0.092000,0.019210,
        0.096577,0.027000,0.010729,0.053938,0.092000,0.037682,0.090973,0.027000,
        0.021046,0.050809,0.092000,0.054706,0.081874,0.027000,0.030553,0.045727,
        0.092000,0.069628,0.069628,0.027000,0.038887,0.038887,0.092000,0.081874,
        0.054706,0.027000,0.045727,0.030553,0.092000,0.090973,0.037682,0.027000,
        0.050809,0.021046,0.092000,0.096577,0.019210,0.027000,0.053938,0.010729,
        0.092000,0.098469,-0.000000,0.027000,0.054995,0.000000,0.092000,
        0.096577,-0.019210,0.027000,0.053938,-0.010729,0.092000,0.090973,
        -0.037682,0.027000,0.050809,-0.021046,0.092000,0.081874,-0.054706,
        0.027000,0.045727,-0.030553,0.092000,0.069628,-0.069628,0.027000,
        0.038887,-0.038887,0.092000,0.054706,-0.081874,0.027000,0.030553,
        -0.045727,0.092000,0.037682,-0.090973,0.027000,0.021046,-0.050809,
        0.092000,0.019210,-0.096577,0.027000,0.010729,-0.053938,0.092000,
        -0.000000,-0.098469,0.027000,-0.000000,-0.054995,0.092000,-0.019210,
        -0.096577,0.027000,-0.010729,-0.053938,0.092000,-0.037682,-0.090973,
        0.027000,-0.021046,-0.050809,0.092000,-0.054706,-0.081874,0.027000,
        -0.030554,-0.045726,0.092000,-0.069628,-0.069628,0.027000,-0.038887,
        -0.038887,0.092000,-0.081874,-0.054706,0.027000,-0.045727,-0.030553,
        0.092000,-0.090973,-0.037682,0.027000,-0.050809,-0.021046,0.092000,
        -0.096577,-0.019210,0.027000,-0.053938,-0.010729,0.092000,-0.098469,
        0.000000,0.027000,-0.054995,0.000000,0.092000,-0.096577,0.019210,
! ... 46 like lines cut
      FACES=2,66,65,2,66,6,67,2,6,68,67,2,8,69,68,2,69,12,70,2,12,71,70,2,71,16,
        72,2,72,18,73,2,73,20,74,2,74,22,75,2,75,24,76,2,24,77,76,2,26,78,77,2,
        78,30,79,2,30,80,79,2,80,34,81,2,34,82,81,2,82,38,83,2,38,84,83,2,84,42,
        85,2,42,86,85,2,44,87,86,2,46,88,87,2,48,89,88,2,50,90,89,2,52,91,90,2,
        54,92,91,2,56,93,92,2,58,94,93,2,60,95,94,2,62,96,95,2,64,65,96,2,96,1,
        63,2,95,63,61,2,94,61,59,2,93,59,57,2,92,57,55,2,91,55,53,2,90,53,51,2,
        89,51,49,2,88,49,47,2,87,47,45,2,86,45,43,2,85,43,41,2,84,41,39,2,83,39,
        37,2,82,37,35,2,81,35,33,2,80,33,31,2,79,31,29,2,78,29,27,2,77,27,25,2,
        76,25,23,2,75,23,21,2,74,21,19,2,73,19,17,2,72,17,15,2,71,15,13,2,70,13,
        11,2,69,11,9,2,68,9,7,2,67,7,5,2,66,5,3,2,65,3,1,2,99,98,97,1,99,102,
        100,1,103,102,101,1,105,104,103,1,105,108,106,1,109,108,107,1,109,112,
        110,1,113,112,111,1,115,114,113,1,115,118,116,1,117,120,118,1,121,120,
        119,1,123,122,121,1,123,126,124,1,127,126,125,1,129,128,127,1,129,132,
        130,1,133,132,131,1,135,134,133,1,137,136,135,1,139,138,137,1,141,140,
        139,1,143,142,141,1,143,146,144,1,147,146,145,1,149,148,147,1,151,150,
        149,1,153,152,151,1,155,154,153,1,157,156,155,1,159,158,157,1,134,40,38,
        2,101,3,5,2,152,58,56,2,119,21,23,2,100,6,4,2,137,39,41,2,118,24,22,2,
        59,153,57,2,136,42,40,2,103,5,7,2,154,60,58,2,121,23,25,2,102,8,6,2,43,
        137,41,2,120,26,24,2,61,155,59,2,138,44,42,2,105,7,9,2,156,62,60,2,123,
        25,27,2,8,106,10,2,141,43,45,2,122,28,26,2,63,157,61,2,140,46,44,2,107,
        9,11,2,158,64,62,2,125,27,29,2,106,12,10,2,47,141,45,2,28,126,30,2,97,
! ... 33 like lines cut
        98,160,1 /


! GEOM Vertices: 768 | Faces: 1536
&GEOM ID='LowerHeaterPlate_LowRes' SURF_ID='StainlessSteel' MOVE_ID = 'spin90'
      VERTS=0.000000,0.080000,0.025000,0.000000,0.080000,0.027000,0.007841,
        0.079615,0.025000,0.007841,0.079615,0.027000,0.015607,0.078463,0.025000,
        0.015607,0.078463,0.027000,0.023223,0.076555,0.025000,0.023223,0.076555,
        0.027000,0.030615,0.073910,0.025000,0.030615,0.073910,0.027000,0.037712,
        0.070554,0.025000,0.037712,0.070554,0.027000,0.044446,0.066518,0.025000,
        0.044446,0.066518,0.027000,0.050751,0.061841,0.025000,0.050751,0.061841,
        0.027000,0.056569,0.056569,0.025000,0.056569,0.056569,0.027000,0.061841,
        0.050751,0.025000,0.061841,0.050751,0.027000,0.066518,0.044446,0.025000,
        0.066518,0.044446,0.027000,0.070554,0.037712,0.025000,0.070554,0.037712,
        0.027000,0.073910,0.030615,0.025000,0.073910,0.030615,0.027000,0.076555,
        0.023223,0.025000,0.076555,0.023223,0.027000,0.078463,0.015607,0.025000,
        0.078463,0.015607,0.027000,0.079615,0.007841,0.025000,0.079615,0.007841,
        0.027000,0.080000,-0.000000,0.025000,0.080000,-0.000000,0.027000,
        0.079615,-0.007841,0.025000,0.079615,-0.007841,0.027000,0.078463,
        -0.015607,0.025000,0.078463,-0.015607,0.027000,0.076555,-0.023223,
        0.025000,0.076555,-0.023223,0.027000,0.073910,-0.030615,0.025000,
        0.073910,-0.030615,0.027000,0.070554,-0.037712,0.025000,0.070554,
        -0.037712,0.027000,0.066518,-0.044446,0.025000,0.066518,-0.044446,
        0.027000,0.061841,-0.050751,0.025000,0.061841,-0.050751,0.027000,
        0.056569,-0.056569,0.025000,0.056569,-0.056569,0.027000,0.050751,
        -0.061841,0.025000,0.050751,-0.061841,0.027000,0.044446,-0.066518,
! ... 86 like lines cut
      FACES=1,128,127,1,251,241,242,1,232,79,77,1,247,245,246,1,248,244,245,1,
        249,243,244,1,250,242,243,1,252,141,241,1,210,208,209,1,211,207,210,1,
        214,140,132,1,213,132,131,1,144,227,141,1,213,205,212,1,133,201,130,1,
        202,200,201,1,216,130,145,1,215,145,140,1,203,199,200,1,146,198,139,1,
        255,221,256,1,161,162,138,1,191,192,190,1,204,129,199,1,136,240,192,1,
        189,190,188,1,187,188,186,1,185,186,184,1,183,184,182,1,181,182,180,1,
        179,180,178,1,177,178,176,1,175,176,174,1,173,174,172,1,171,172,170,1,
        169,170,168,1,167,168,166,1,165,166,164,1,163,164,162,1,3,2,1,1,158,159,
        157,1,156,157,155,1,154,155,153,1,152,153,151,1,150,151,149,1,160,139,
        159,1,194,196,197,1,193,197,198,1,148,149,147,1,165,4,6,1,212,206,211,1,
        224,230,229,1,226,228,227,1,254,233,217,1,222,232,231,1,223,231,230,1,
        225,229,228,1,137,237,238,1,234,217,233,1,235,218,234,1,236,219,235,1,
        237,220,236,1,142,238,239,1,143,239,240,1,134,147,129,1,55,54,53,1,57,
        56,55,1,59,58,57,1,61,60,59,1,63,62,61,1,65,64,63,1,67,66,65,1,37,36,35,
        1,39,38,37,1,41,40,39,1,43,42,41,1,45,44,43,1,47,46,45,1,49,48,47,1,51,
        50,49,1,53,52,51,1,83,82,81,1,85,84,83,1,87,86,85,1,89,88,87,1,91,90,89,
        1,93,92,91,1,95,94,93,1,97,96,95,1,99,98,97,1,69,68,67,1,71,70,69,1,73,
        72,71,1,75,74,73,1,77,76,75,1,79,78,77,1,81,80,79,1,101,100,99,1,103,
        102,101,1,105,104,103,1,107,106,105,1,125,124,123,1,127,126,125,1,5,4,3,
        1,109,108,107,1,111,110,109,1,113,112,111,1,115,114,113,1,117,116,115,1,
        119,118,117,1,121,120,119,1,123,122,121,1,7,6,5,1,9,8,7,1,11,10,9,1,13,
! ... 71 like lines cut
        1 /
! GEOM Vertices: 768 | Faces: 1536
GEOM ID='UpperHeaterPlate_lowRes' SURF_ID='StainlessSteel' MOVE_ID = 'spin90'
      VERTS=0.000000,0.040000,0.092000,0.000000,0.040000,0.094000,0.003921,
        0.039807,0.092000,0.003921,0.039807,0.094000,0.007804,0.039231,0.092000,
        0.007804,0.039231,0.094000,0.011611,0.038278,0.092000,0.011611,0.038278,
        0.094000,0.015307,0.036955,0.092000,0.015307,0.036955,0.094000,0.018856,
        0.035277,0.092000,0.018856,0.035277,0.094000,0.022223,0.033259,0.092000,
        0.022223,0.033259,0.094000,0.025376,0.030920,0.092000,0.025376,0.030920,
        0.094000,0.028284,0.028284,0.092000,0.028284,0.028284,0.094000,0.030920,
        0.025376,0.092000,0.030920,0.025376,0.094000,0.033259,0.022223,0.092000,
        0.033259,0.022223,0.094000,0.035277,0.018856,0.092000,0.035277,0.018856,
        0.094000,0.036955,0.015307,0.092000,0.036955,0.015307,0.094000,0.038278,
        0.011611,0.092000,0.038278,0.011611,0.094000,0.039231,0.007804,0.092000,
        0.039231,0.007804,0.094000,0.039807,0.003921,0.092000,0.039807,0.003921,
        0.094000,0.040000,-0.000000,0.092000,0.040000,-0.000000,0.094000,
        0.039807,-0.003921,0.092000,0.039807,-0.003921,0.094000,0.039231,
        -0.007804,0.092000,0.039231,-0.007804,0.094000,0.038278,-0.011611,
        0.092000,0.038278,-0.011611,0.094000,0.036955,-0.015307,0.092000,
        0.036955,-0.015307,0.094000,0.035277,-0.018856,0.092000,0.035277,
        -0.018856,0.094000,0.033259,-0.022223,0.092000,0.033259,-0.022223,
        0.094000,0.030920,-0.025376,0.092000,0.030920,-0.025376,0.094000,
        0.028284,-0.028284,0.092000,0.028284,-0.028284,0.094000,0.025376,
        -0.030920,0.092000,0.025376,-0.030920,0.094000,0.022223,-0.033259,
! ... 86 like lines cut
      FACES=1,128,127,1,169,1,127,1,129,3,1,1,3,133,5,1,133,7,5,1,7,137,9,1,137,
        11,9,1,139,13,11,1,141,15,13,1,15,145,17,1,21,237,23,1,256,19,147,1,206,
        107,105,1,23,236,25,1,25,235,27,1,235,29,27,1,234,31,29,1,233,33,31,1,
        232,35,33,1,231,37,35,1,230,39,37,1,229,41,39,1,45,227,251,1,145,19,17,
        1,47,184,49,1,49,183,51,1,51,182,53,1,53,181,55,1,55,180,57,1,57,179,59,
        1,59,178,61,1,61,177,63,1,63,176,65,1,176,67,65,1,175,69,67,1,174,71,69,
        1,173,73,71,1,172,75,73,1,171,77,75,1,150,79,77,1,149,81,79,1,215,85,
        249,1,185,45,251,1,152,83,81,1,87,214,89,1,89,213,91,1,91,212,93,1,93,
        211,95,1,95,210,97,1,97,209,99,1,99,208,101,1,101,207,103,1,207,105,103,
        1,109,205,254,1,85,151,249,1,153,113,111,1,113,157,115,1,115,159,117,1,
        117,161,119,1,161,121,119,1,163,123,121,1,170,129,169,1,154,155,153,1,
        130,131,129,1,146,147,145,1,144,145,143,1,142,143,141,1,140,141,139,1,
        138,139,137,1,136,137,135,1,134,135,133,1,132,133,131,1,168,169,167,1,
        166,167,165,1,164,165,163,1,162,163,161,1,160,161,159,1,158,159,157,1,
        156,157,155,1,252,227,248,1,185,187,184,1,184,188,183,1,183,189,182,1,
        182,190,181,1,181,191,180,1,180,192,179,1,179,193,178,1,178,194,177,1,
        177,195,176,1,176,196,175,1,175,197,174,1,174,198,173,1,173,199,172,1,
        172,200,171,1,171,201,150,1,150,202,149,1,149,203,152,1,152,204,151,1,
        148,256,147,1,250,151,204,1,216,214,215,1,217,213,214,1,218,212,213,1,
        219,211,212,1,220,210,211,1,221,209,210,1,222,208,209,1,223,207,208,1,
        224,206,207,1,225,205,206,1,255,153,254,1,256,238,237,1,237,239,236,1,
! ... 71 like lines cut
        186,185,251,1,228,227,43,1 /

##################
#### Analysis ####
##################

***** Boundaries *******************

&BNDF QUANTITY='TOTAL HEAT FLUX' CELL_CENTERED=T /
&BNDF QUANTITY='RADIATIVE HEAT FLUX' CELL_CENTERED=T /
&BNDF QUANTITY='CONVECTIVE HEAT FLUX' CELL_CENTERED=T /
&BNDF QUANTITY='CONVECTIVE HEAT FLUX GAUGE' CELL_CENTERED=T /
&BNDF QUANTITY='INCIDENT HEAT FLUX' CELL_CENTERED=T /
&BNDF QUANTITY='GAUGE HEAT FLUX' CELL_CENTERED=T /
&BNDF QUANTITY='RADIOMETER' CELL_CENTERED=T /
&BNDF QUANTITY='REFERENCE_HEAT_FLUX' CELL_CENTERED=T /
&BNDF QUANTITY='HEAT TRANSFER COEFFICIENT' CELL_CENTERED=T /
&BNDF QUANTITY='HRRPUA' CELL_CENTERED=T /
&BNDF QUANTITY='WALL TEMPERATURE' CELL_CENTERED=T /
&BNDF QUANTITY='ADIABATIC SURFACE TEMPERATURE' CELL_CENTERED=T /
&BNDF QUANTITY='GAS TEMPERATURE' CELL_CENTERED=T /


***** Slice Files *******************

&SLCF PBX           = 0.0,
      QUANTITY      = 'TEMPERATURE',
      VECTOR        = .TRUE.,
      CELL_CENTERED = .TRUE./

&SLCF PBX           = 0.0,
      QUANTITY      = 'EFFECTIVE FLAME TEMPERATURE',
      VECTOR        = .TRUE.,
      CELL_CENTERED = .TRUE./

&SLCF PBX           = 0.0,
      QUANTITY      = 'HRRPUV',
      VECTOR        = .TRUE.,
      CELL_CENTERED = .TRUE./

&SLCF PBX           = 0.0,
      QUANTITY      = 'VELOCITY',
      VECTOR        = .TRUE.,
      CELL_CENTERED = .FALSE./

&TAIL /