&HEAD CHID='cone_geom_hh_6_50', TITLE='Cone Calorimeter simulation setup horizontal - example PMMA with 6mm thickness and 50kW/m2 heat flux' /

MESH ID='MESH01', IJK=45,45,45, XB=-0.15,0.15,-0.15,0.15,-0.10,0.20/
&MESH ID='MESH01', IJK=15,15,45, XB=-0.15,-0.05,-0.15,-0.05, -0.1,0.2/
&MESH ID='MESH02', IJK=15,15,45, XB=-0.15,-0.05,-0.05, 0.05, -0.1,0.2/
&MESH ID='MESH03', IJK=15,15,45, XB=-0.15,-0.05, 0.05, 0.15, -0.1,0.2/
&MESH ID='MESH04', IJK=15,15,45, XB=-0.05,0.05,-0.15,-0.05, -0.1,0.2/
&MESH ID='MESH05', IJK=15,15,45, XB=-0.05,0.05,-0.05, 0.05, -0.1,0.2/
&MESH ID='MESH06', IJK=15,15,45, XB=-0.05,0.05,0.05, 0.15 , -0.1,0.2/
&MESH ID='MESH07', IJK=15,15,45, XB=0.05,0.15,-0.15,-0.05,-0.1,0.2/
&MESH ID='MESH08', IJK=15,15,45, XB=0.05,0.15,-0.05, 0.05,-0.1,0.2/
&MESH ID='MESH09', IJK=15,15,45, XB=0.05,0.15,0.05, 0.15 ,-0.1,0.2/

&TIME T_BEGIN = -5, T_END= 1200/
&DUMP NFRAMES=1205, DT_RESTART=300, DT_BNDF=5, DT_SLCF=10, DT_DEVC=1 /

&MISC SIMULATION_MODE='LES' RESTART=F  BNDF_DEFAULT=F / 
&RADI NUMBER_RADIATION_ANGLES=300, QR_CLIP = 1, C_MIN = 0.1, C_MAX = 100 /

&SPEC ID='MMA', FORMULA='C5O2H8', RADCAL_ID='MMA', RAMP_CP='MMA CP'/
&RAMP ID='MMA CP', T=114, F=1.48 / https://www.chemeo.com/cid/57-301-4/Methyl-methacrylate
&RAMP ID='MMA CP', T=300, F=1.90 /
&REAC FUEL='MMA', SOOT_YIELD=0.022, CO_YIELD=0.010, RADIATIVE_FRACTION=0.33, HEAT_OF_COMBUSTION=25610 / entnommen aus https://github.com/firemodels/fds/blob/master/Validation/NIST_NRC_Parallel_Panels/FDS_Input_Files/PMMA_60_kW_1_cm.fds

***** Open Vents ********************

&VENT MB = 'XMIN',SURF_ID = 'OPEN'/
&VENT MB = 'XMAX',SURF_ID = 'OPEN'/
&VENT MB = 'YMIN',SURF_ID = 'OPEN'/
&VENT MB = 'YMAX',SURF_ID = 'OPEN'/
&VENT MB = 'ZMIN',SURF_ID = 'OPEN'/
&VENT MB = 'ZMAX',SURF_ID = 'OPEN'/

################################
#### Materials and Surfaces ####
################################

***** Surfaces ********************

https://nvlpubs.nist.gov/nistpubs/Legacy/IR/nbsir82-2611.pdf
From Babrauskas's report:
75 kW/m2: 841 ˚C  emis: 1.359
50 kW/m2: 744 ˚C  emis: 1.276
25 kW/m2: 592 ˚C  emis: 1.198
Estimated:
65 kW/m2: 804 ˚C

estimated with fixed Emissivity:
25 kW/m² -> 634 °C
50 kW/m² -> 804 °C
75 kW/m² -> 918 °C

&SURF ID         = 'ConeHeater'
      RGB        = 255,31,5
      EMISSIVITY = 0.9
      TMP_FRONT  = 804
      RAMP_T     = 'CONE' /

&RAMP ID='CONE', T=-1.0, F=0/
&RAMP ID='CONE', T=0, F=1/

&MATL ID='STEEL' FYI='Eurocode 3' DENSITY=7850.0
      CONDUCTIVITY_RAMP='STEEL_CONDUCTIVITY_RAMP'
      SPECIFIC_HEAT_RAMP='STEEL_SPECIFIC_HEAT_RAMP' /
&RAMP ID='STEEL_SPECIFIC_HEAT_RAMP' T=0.0 F=0.425 /
&RAMP ID='STEEL_SPECIFIC_HEAT_RAMP' T=20.0 F=0.439802 /
&RAMP ID='STEEL_SPECIFIC_HEAT_RAMP' T=100.0 F=0.48762 /
&RAMP ID='STEEL_SPECIFIC_HEAT_RAMP' T=200.0 F=0.52976 /
&RAMP ID='STEEL_SPECIFIC_HEAT_RAMP' T=300.0 F=0.56474 /
&RAMP ID='STEEL_SPECIFIC_HEAT_RAMP' T=400.0 F=0.60588 /
&RAMP ID='STEEL_SPECIFIC_HEAT_RAMP' T=500.0 F=0.6665 /
&RAMP ID='STEEL_SPECIFIC_HEAT_RAMP' T=600.0 F=0.75992 /
&RAMP ID='STEEL_SPECIFIC_HEAT_RAMP' T=600.01 F=0.760224 /
&RAMP ID='STEEL_SPECIFIC_HEAT_RAMP' T=620.0 F=0.776186 /
&RAMP ID='STEEL_SPECIFIC_HEAT_RAMP' T=640.0 F=0.798673 /
&RAMP ID='STEEL_SPECIFIC_HEAT_RAMP' T=660.0 F=0.832692 /
&RAMP ID='STEEL_SPECIFIC_HEAT_RAMP' T=680.0 F=0.890172 /
&RAMP ID='STEEL_SPECIFIC_HEAT_RAMP' T=700.0 F=1.008158 /
&RAMP ID='STEEL_SPECIFIC_HEAT_RAMP' T=720.0 F=1.388333 /
&RAMP ID='STEEL_SPECIFIC_HEAT_RAMP' T=735.0 F=5.0 /
&RAMP ID='STEEL_SPECIFIC_HEAT_RAMP' T=735.01 F=4.98889 /
&RAMP ID='STEEL_SPECIFIC_HEAT_RAMP' T=740.0 F=2.525 /
&RAMP ID='STEEL_SPECIFIC_HEAT_RAMP' T=760.0 F=1.159483 /
&RAMP ID='STEEL_SPECIFIC_HEAT_RAMP' T=780.0 F=0.908673 /
! ... 10 like lines cut
&RAMP ID='STEEL_CONDUCTIVITY_RAMP' T=0.0 F=54.0 /
&RAMP ID='STEEL_CONDUCTIVITY_RAMP' T=20.0 F=53.334 /
&RAMP ID='STEEL_CONDUCTIVITY_RAMP' T=100.0 F=50.67 /
&RAMP ID='STEEL_CONDUCTIVITY_RAMP' T=200.0 F=47.34 /
&RAMP ID='STEEL_CONDUCTIVITY_RAMP' T=300.0 F=44.01 /
&RAMP ID='STEEL_CONDUCTIVITY_RAMP' T=400.0 F=40.68 /
&RAMP ID='STEEL_CONDUCTIVITY_RAMP' T=500.0 F=37.35 /
&RAMP ID='STEEL_CONDUCTIVITY_RAMP' T=600.0 F=34.02 /
&RAMP ID='STEEL_CONDUCTIVITY_RAMP' T=700.0 F=30.69 /
&RAMP ID='STEEL_CONDUCTIVITY_RAMP' T=800.0 F=27.36 /
&RAMP ID='STEEL_CONDUCTIVITY_RAMP' T=900.0 F=27.3 /
&RAMP ID='STEEL_CONDUCTIVITY_RAMP' T=1000.0 F=27.3 /
&RAMP ID='STEEL_CONDUCTIVITY_RAMP' T=1100.0 F=27.3 /
&RAMP ID='STEEL_CONDUCTIVITY_RAMP' T=1200.0 F=27.3 /

# with StainlessSteel in heater geometry interactions that lead to cancellation
SURF ID='StainlessSteel' 
      RGB=88,86,102 
      BACKING='EXPOSED' 
      MATL_ID(1,1)='STEEL'
      THICKNESS(1)=0.002 
      MATL_MASS_FRACTION(1,1)=1.0 /

&SURF ID='StainlessSteel' RGB=88,86,102 /

&MATL ID = 'PMMA', DENSITY = 1139.241, CONDUCTIVITY_RAMP = 'k_PMMA',
      SPECIFIC_HEAT_RAMP = 'cp_PMMA', EMISSIVITY = 0.96, ABSORPTION_COEFFICIENT = 2870 /

&RAMP ID='k_PMMA', T= 20., F=0.160 /
&RAMP ID='k_PMMA', T=122., F=0.160 /
&RAMP ID='k_PMMA', T=500., F=0.015 /

&RAMP ID='cp_PMMA', T= 20., F=1.05 /
&RAMP ID='cp_PMMA', T=122., F=1.90 /
&RAMP ID='cp_PMMA', T=500., F=3.22 /

MATL ID            = 'PROMATECT'
      EMISSIVITY    = 0.9
      DENSITY       = 450.
      SPECIFIC_HEAT = 0.95
      CONDUCTIVITY_RAMP = 'k_PROMAT LS' /

RAMP ID='k_PROMAT LS', T= 20., F=0.08 /
RAMP ID='k_PROMAT LS', T=200., F=0.10 /
RAMP ID='k_PROMAT LS', T=400., F=0.11 /

&MATL ID = 'Backing', DENSITY = 340, CONDUCTIVITY_RAMP = 'cond_fb', SPECIFIC_HEAT = 1.1 /

&RAMP ID = 'cond_fb', T = 000., F = 0.0462 / extrapoliert (Exponentialfunktion)
&RAMP ID = 'cond_fb', T = 200., F = 0.0611 / extrapoliert (Exponentialfunktion)
&RAMP ID = 'cond_fb', T = 400., F = 0.082 /
&RAMP ID = 'cond_fb', T = 600., F = 0.105 /
&RAMP ID = 'cond_fb', T = 800., F = 0.140 /
&RAMP ID = 'cond_fb', T = 1000, F = 0.189 /

##################
#### Geometry ####
##################

*** Specimen ***
#inputs specific for SPyro

&SURF ID                      = 'PMMA_CN',
      FYI                     = 'Parameter from Cone_C5_PMMACN_h_rep99',
      RGB                     = 0,0,0 ,
      CELL_SIZE_FACTOR        = 1.0,
      STRETCH_FACTOR(1:1)     = 1.0,
      BACKING                 = 'EXPOSED',
      THICKNESS(1:2)          = 0.006, 0.042,
      MATL_ID(1,1:1)          = 'PMMA',
      MATL_ID(2,1:1)          = 'Backing',
      HRRPUA                  = 1.0,
      RAMP_Q                  = 'CONE_6_25', 'CONE_6_75', 'CONE_10_25', 'CONE_10_50', 'CONE_10_75',
      REFERENCE_HEAT_FLUX     = 25,75,25,50,75,
      REFERENCE_THICKNESS     = 0.006, 0.006, 0.01, 0.01, 0.01,
      IGNITION_TEMPERATURE    = 340.7745079335275,
      HEAT_OF_VAPORIZATION    = 2029.3588585067885 /

&SURF ID                      = 'PMMA_back',
      COLOR                   = 'BEIGE',
      BACKING                 = 'EXPOSED',
      THICKNESS(1:2)          = 0.042, 0.006,
      MATL_ID(1,1:1)          = 'Backing',
      MATL_ID(2,1:1)          = 'PMMA' /

&OBST XB = -0.05,0.05, -0.05,0.05, -0.04, 0.0, SURF_ID6='StainlessSteel', 'StainlessSteel','StainlessSteel', 'StainlessSteel', 'StainlessSteel','PMMA_CN', BNDF_OBST=.TRUE. /

&RAMP ID = 'CONE_6_25', T = 0.000, F = 0.000 / PMMA_CN_6mm_Horizontal
&RAMP ID = 'CONE_6_25', T = 0.100, F = 246.883 / PMMA_CN_6mm_Horizontal
&RAMP ID = 'CONE_6_25', T = 2.200, F = 266.927 / PMMA_CN_6mm_Horizontal
&RAMP ID = 'CONE_6_25', T = 6.700, F = 285.580 / PMMA_CN_6mm_Horizontal
&RAMP ID = 'CONE_6_25', T = 17.400, F = 309.266 / PMMA_CN_6mm_Horizontal
&RAMP ID = 'CONE_6_25', T = 27.300, F = 310.572 / PMMA_CN_6mm_Horizontal
&RAMP ID = 'CONE_6_25', T = 37.300, F = 317.844 / PMMA_CN_6mm_Horizontal
&RAMP ID = 'CONE_6_25', T = 43.100, F = 317.169 / PMMA_CN_6mm_Horizontal
&RAMP ID = 'CONE_6_25', T = 53.100, F = 325.748 / PMMA_CN_6mm_Horizontal
&RAMP ID = 'CONE_6_25', T = 63.100, F = 322.858 / PMMA_CN_6mm_Horizontal
&RAMP ID = 'CONE_6_25', T = 81.800, F = 336.410 / PMMA_CN_6mm_Horizontal
&RAMP ID = 'CONE_6_25', T = 106.600, F = 336.723 / PMMA_CN_6mm_Horizontal
&RAMP ID = 'CONE_6_25', T = 121.400, F = 344.066 / PMMA_CN_6mm_Horizontal
&RAMP ID = 'CONE_6_25', T = 146.500, F = 342.350 / PMMA_CN_6mm_Horizontal
&RAMP ID = 'CONE_6_25', T = 161.800, F = 346.623 / PMMA_CN_6mm_Horizontal
&RAMP ID = 'CONE_6_25', T = 172.600, F = 357.650 / PMMA_CN_6mm_Horizontal
&RAMP ID = 'CONE_6_25', T = 183.000, F = 357.003 / PMMA_CN_6mm_Horizontal
&RAMP ID = 'CONE_6_25', T = 192.000, F = 365.517 / PMMA_CN_6mm_Horizontal
&RAMP ID = 'CONE_6_25', T = 217.200, F = 375.024 / PMMA_CN_6mm_Horizontal
&RAMP ID = 'CONE_6_25', T = 236.200, F = 395.254 / PMMA_CN_6mm_Horizontal
! ... 28 like lines cut


&RAMP ID = 'CONE_6_50', T = 0.000, F = 0.000 / PMMA_CN_6mm_Horizontal
&RAMP ID = 'CONE_6_50', T = 0.100, F = 364.611 / PMMA_CN_6mm_Horizontal
&RAMP ID = 'CONE_6_50', T = 2.900, F = 431.921 / PMMA_CN_6mm_Horizontal
&RAMP ID = 'CONE_6_50', T = 4.200, F = 454.830 / PMMA_CN_6mm_Horizontal
&RAMP ID = 'CONE_6_50', T = 8.900, F = 490.016 / PMMA_CN_6mm_Horizontal
&RAMP ID = 'CONE_6_50', T = 13.200, F = 509.902 / PMMA_CN_6mm_Horizontal
&RAMP ID = 'CONE_6_50', T = 19.000, F = 522.047 / PMMA_CN_6mm_Horizontal
&RAMP ID = 'CONE_6_50', T = 29.400, F = 525.120 / PMMA_CN_6mm_Horizontal
&RAMP ID = 'CONE_6_50', T = 39.200, F = 539.902 / PMMA_CN_6mm_Horizontal
&RAMP ID = 'CONE_6_50', T = 63.000, F = 543.462 / PMMA_CN_6mm_Horizontal
&RAMP ID = 'CONE_6_50', T = 69.100, F = 562.100 / PMMA_CN_6mm_Horizontal
&RAMP ID = 'CONE_6_50', T = 78.900, F = 561.001 / PMMA_CN_6mm_Horizontal
&RAMP ID = 'CONE_6_50', T = 84.200, F = 573.741 / PMMA_CN_6mm_Horizontal
&RAMP ID = 'CONE_6_50', T = 107.900, F = 577.653 / PMMA_CN_6mm_Horizontal
&RAMP ID = 'CONE_6_50', T = 118.200, F = 600.289 / PMMA_CN_6mm_Horizontal
&RAMP ID = 'CONE_6_50', T = 123.200, F = 595.828 / PMMA_CN_6mm_Horizontal
&RAMP ID = 'CONE_6_50', T = 133.000, F = 607.195 / PMMA_CN_6mm_Horizontal
&RAMP ID = 'CONE_6_50', T = 139.200, F = 602.368 / PMMA_CN_6mm_Horizontal
&RAMP ID = 'CONE_6_50', T = 144.200, F = 613.104 / PMMA_CN_6mm_Horizontal
&RAMP ID = 'CONE_6_50', T = 154.000, F = 643.094 / PMMA_CN_6mm_Horizontal
! ... 28 like lines cut


&RAMP ID = 'CONE_6_75', T = 0.000, F = 0.000 / PMMA_CN_6mm_Horizontal
&RAMP ID = 'CONE_6_75', T = 0.100, F = 425.501 / PMMA_CN_6mm_Horizontal
&RAMP ID = 'CONE_6_75', T = 2.900, F = 560.249 / PMMA_CN_6mm_Horizontal
&RAMP ID = 'CONE_6_75', T = 4.300, F = 603.564 / PMMA_CN_6mm_Horizontal
&RAMP ID = 'CONE_6_75', T = 8.300, F = 685.929 / PMMA_CN_6mm_Horizontal
&RAMP ID = 'CONE_6_75', T = 13.500, F = 735.265 / PMMA_CN_6mm_Horizontal
&RAMP ID = 'CONE_6_75', T = 22.800, F = 780.443 / PMMA_CN_6mm_Horizontal
&RAMP ID = 'CONE_6_75', T = 27.700, F = 788.620 / PMMA_CN_6mm_Horizontal
&RAMP ID = 'CONE_6_75', T = 43.300, F = 776.377 / PMMA_CN_6mm_Horizontal
&RAMP ID = 'CONE_6_75', T = 48.500, F = 796.906 / PMMA_CN_6mm_Horizontal
&RAMP ID = 'CONE_6_75', T = 59.500, F = 803.387 / PMMA_CN_6mm_Horizontal
&RAMP ID = 'CONE_6_75', T = 68.000, F = 816.011 / PMMA_CN_6mm_Horizontal
&RAMP ID = 'CONE_6_75', T = 73.300, F = 829.909 / PMMA_CN_6mm_Horizontal
&RAMP ID = 'CONE_6_75', T = 78.800, F = 819.631 / PMMA_CN_6mm_Horizontal
&RAMP ID = 'CONE_6_75', T = 82.500, F = 823.008 / PMMA_CN_6mm_Horizontal
&RAMP ID = 'CONE_6_75', T = 88.600, F = 851.703 / PMMA_CN_6mm_Horizontal
&RAMP ID = 'CONE_6_75', T = 98.400, F = 857.382 / PMMA_CN_6mm_Horizontal
&RAMP ID = 'CONE_6_75', T = 104.300, F = 883.938 / PMMA_CN_6mm_Horizontal
&RAMP ID = 'CONE_6_75', T = 117.600, F = 911.091 / PMMA_CN_6mm_Horizontal
&RAMP ID = 'CONE_6_75', T = 129.400, F = 951.900 / PMMA_CN_6mm_Horizontal
! ... 28 like lines cut


&RAMP ID = 'CONE_10_25', T = 0.000, F = 0.000 / PMMA_CN_10mm_Horizontal
&RAMP ID = 'CONE_10_25', T = 0.100, F = 254.039 / PMMA_CN_10mm_Horizontal
&RAMP ID = 'CONE_10_25', T = 2.400, F = 261.974 / PMMA_CN_10mm_Horizontal
&RAMP ID = 'CONE_10_25', T = 12.700, F = 280.844 / PMMA_CN_10mm_Horizontal
&RAMP ID = 'CONE_10_25', T = 27.400, F = 293.025 / PMMA_CN_10mm_Horizontal
&RAMP ID = 'CONE_10_25', T = 65.700, F = 310.493 / PMMA_CN_10mm_Horizontal
&RAMP ID = 'CONE_10_25', T = 76.600, F = 305.973 / PMMA_CN_10mm_Horizontal
&RAMP ID = 'CONE_10_25', T = 97.000, F = 316.194 / PMMA_CN_10mm_Horizontal
&RAMP ID = 'CONE_10_25', T = 116.600, F = 305.495 / PMMA_CN_10mm_Horizontal
&RAMP ID = 'CONE_10_25', T = 127.600, F = 308.179 / PMMA_CN_10mm_Horizontal
&RAMP ID = 'CONE_10_25', T = 141.400, F = 304.210 / PMMA_CN_10mm_Horizontal
&RAMP ID = 'CONE_10_25', T = 171.500, F = 310.342 / PMMA_CN_10mm_Horizontal
&RAMP ID = 'CONE_10_25', T = 197.400, F = 302.939 / PMMA_CN_10mm_Horizontal
&RAMP ID = 'CONE_10_25', T = 217.400, F = 308.648 / PMMA_CN_10mm_Horizontal
&RAMP ID = 'CONE_10_25', T = 257.100, F = 306.413 / PMMA_CN_10mm_Horizontal
&RAMP ID = 'CONE_10_25', T = 306.400, F = 315.524 / PMMA_CN_10mm_Horizontal
&RAMP ID = 'CONE_10_25', T = 316.900, F = 321.868 / PMMA_CN_10mm_Horizontal
&RAMP ID = 'CONE_10_25', T = 327.300, F = 313.732 / PMMA_CN_10mm_Horizontal
&RAMP ID = 'CONE_10_25', T = 372.200, F = 327.833 / PMMA_CN_10mm_Horizontal
&RAMP ID = 'CONE_10_25', T = 412.300, F = 328.562 / PMMA_CN_10mm_Horizontal
! ... 28 like lines cut


&RAMP ID = 'CONE_10_50', T = 0.000, F = 0.000 / PMMA_CN_10mm_Horizontal
&RAMP ID = 'CONE_10_50', T = 0.100, F = 413.090 / PMMA_CN_10mm_Horizontal
&RAMP ID = 'CONE_10_50', T = 2.900, F = 446.993 / PMMA_CN_10mm_Horizontal
&RAMP ID = 'CONE_10_50', T = 6.200, F = 470.487 / PMMA_CN_10mm_Horizontal
&RAMP ID = 'CONE_10_50', T = 10.500, F = 487.894 / PMMA_CN_10mm_Horizontal
&RAMP ID = 'CONE_10_50', T = 18.000, F = 503.162 / PMMA_CN_10mm_Horizontal
&RAMP ID = 'CONE_10_50', T = 42.500, F = 522.173 / PMMA_CN_10mm_Horizontal
&RAMP ID = 'CONE_10_50', T = 52.700, F = 520.622 / PMMA_CN_10mm_Horizontal
&RAMP ID = 'CONE_10_50', T = 62.600, F = 533.069 / PMMA_CN_10mm_Horizontal
&RAMP ID = 'CONE_10_50', T = 73.100, F = 529.120 / PMMA_CN_10mm_Horizontal
&RAMP ID = 'CONE_10_50', T = 83.100, F = 541.712 / PMMA_CN_10mm_Horizontal
&RAMP ID = 'CONE_10_50', T = 94.500, F = 524.080 / PMMA_CN_10mm_Horizontal
&RAMP ID = 'CONE_10_50', T = 102.500, F = 535.255 / PMMA_CN_10mm_Horizontal
&RAMP ID = 'CONE_10_50', T = 117.400, F = 541.005 / PMMA_CN_10mm_Horizontal
&RAMP ID = 'CONE_10_50', T = 158.000, F = 541.066 / PMMA_CN_10mm_Horizontal
&RAMP ID = 'CONE_10_50', T = 169.500, F = 550.020 / PMMA_CN_10mm_Horizontal
&RAMP ID = 'CONE_10_50', T = 177.800, F = 545.341 / PMMA_CN_10mm_Horizontal
&RAMP ID = 'CONE_10_50', T = 205.900, F = 574.688 / PMMA_CN_10mm_Horizontal
&RAMP ID = 'CONE_10_50', T = 217.800, F = 582.651 / PMMA_CN_10mm_Horizontal
&RAMP ID = 'CONE_10_50', T = 227.800, F = 579.941 / PMMA_CN_10mm_Horizontal
! ... 28 like lines cut


&RAMP ID = 'CONE_10_75', T = 0.000, F = 0.000 / PMMA_CN_10mm_Horizontal
&RAMP ID = 'CONE_10_75', T = 0.100, F = 558.790 / PMMA_CN_10mm_Horizontal
&RAMP ID = 'CONE_10_75', T = 1.600, F = 619.936 / PMMA_CN_10mm_Horizontal
&RAMP ID = 'CONE_10_75', T = 5.900, F = 705.120 / PMMA_CN_10mm_Horizontal
&RAMP ID = 'CONE_10_75', T = 11.600, F = 756.689 / PMMA_CN_10mm_Horizontal
&RAMP ID = 'CONE_10_75', T = 26.900, F = 800.784 / PMMA_CN_10mm_Horizontal
&RAMP ID = 'CONE_10_75', T = 36.300, F = 798.371 / PMMA_CN_10mm_Horizontal
&RAMP ID = 'CONE_10_75', T = 46.200, F = 814.469 / PMMA_CN_10mm_Horizontal
&RAMP ID = 'CONE_10_75', T = 57.100, F = 808.752 / PMMA_CN_10mm_Horizontal
&RAMP ID = 'CONE_10_75', T = 87.400, F = 844.643 / PMMA_CN_10mm_Horizontal
&RAMP ID = 'CONE_10_75', T = 101.700, F = 832.131 / PMMA_CN_10mm_Horizontal
&RAMP ID = 'CONE_10_75', T = 111.500, F = 863.977 / PMMA_CN_10mm_Horizontal
&RAMP ID = 'CONE_10_75', T = 115.900, F = 870.643 / PMMA_CN_10mm_Horizontal
&RAMP ID = 'CONE_10_75', T = 135.600, F = 852.899 / PMMA_CN_10mm_Horizontal
&RAMP ID = 'CONE_10_75', T = 145.800, F = 875.444 / PMMA_CN_10mm_Horizontal
&RAMP ID = 'CONE_10_75', T = 151.200, F = 870.749 / PMMA_CN_10mm_Horizontal
&RAMP ID = 'CONE_10_75', T = 160.900, F = 882.584 / PMMA_CN_10mm_Horizontal
&RAMP ID = 'CONE_10_75', T = 167.000, F = 879.887 / PMMA_CN_10mm_Horizontal
&RAMP ID = 'CONE_10_75', T = 172.400, F = 897.384 / PMMA_CN_10mm_Horizontal
&RAMP ID = 'CONE_10_75', T = 185.800, F = 901.696 / PMMA_CN_10mm_Horizontal
! ... 28 like lines cut

*** Heater GEOM ***

<HeaterAssembly_LowRes>
! GEOM Vertices: 480 | Faces: 960
&GEOM ID='Heater_LowRes' SURF_ID='ConeHeater','StainlessSteel'
      VERTS=-0.000000,0.098469,0.027000,-0.000000,0.054995,0.092000,0.019210,
        0.096577,0.027000,0.010729,0.053938,0.092000,0.037682,0.090973,0.027000,
        0.021046,0.050809,0.092000,0.054706,0.081874,0.027000,0.030553,0.045727,
        0.092000,0.069628,0.069628,0.027000,0.038887,0.038887,0.092000,0.081874,
        0.054706,0.027000,0.045727,0.030553,0.092000,0.090973,0.037682,0.027000,
        0.050809,0.021046,0.092000,0.096577,0.019210,0.027000,0.053938,0.010729,
        0.092000,0.098469,-0.000000,0.027000,0.054995,0.000000,0.092000,
        0.096577,-0.019210,0.027000,0.053938,-0.010729,0.092000,0.090973,
        -0.037682,0.027000,0.050809,-0.021046,0.092000,0.081874,-0.054706,
        0.027000,0.045727,-0.030553,0.092000,0.069628,-0.069628,0.027000,
        0.038887,-0.038887,0.092000,0.054706,-0.081874,0.027000,0.030553,
        -0.045727,0.092000,0.037682,-0.090973,0.027000,0.021046,-0.050809,
        0.092000,0.019210,-0.096577,0.027000,0.010729,-0.053938,0.092000,
        -0.000000,-0.098469,0.027000,-0.000000,-0.054995,0.092000,-0.019210,
        -0.096577,0.027000,-0.010729,-0.053938,0.092000,-0.037682,-0.090973,
        0.027000,-0.021046,-0.050809,0.092000,-0.054706,-0.081874,0.027000,
        -0.030554,-0.045726,0.092000,-0.069628,-0.069628,0.027000,-0.038887,
        -0.038887,0.092000,-0.081874,-0.054706,0.027000,-0.045727,-0.030553,
        0.092000,-0.090973,-0.037682,0.027000,-0.050809,-0.021046,0.092000,
        -0.096577,-0.019210,0.027000,-0.053938,-0.010729,0.092000,-0.098469,
        0.000000,0.027000,-0.054995,0.000000,0.092000,-0.096577,0.019210,
! ... 46 like lines cut
      FACES=2,66,65,2,66,6,67,2,6,68,67,2,8,69,68,2,69,12,70,2,12,71,70,2,71,16,
        72,2,72,18,73,2,73,20,74,2,74,22,75,2,75,24,76,2,24,77,76,2,26,78,77,2,
        78,30,79,2,30,80,79,2,80,34,81,2,34,82,81,2,82,38,83,2,38,84,83,2,84,42,
        85,2,42,86,85,2,44,87,86,2,46,88,87,2,48,89,88,2,50,90,89,2,52,91,90,2,
        54,92,91,2,56,93,92,2,58,94,93,2,60,95,94,2,62,96,95,2,64,65,96,2,96,1,
        63,2,95,63,61,2,94,61,59,2,93,59,57,2,92,57,55,2,91,55,53,2,90,53,51,2,
        89,51,49,2,88,49,47,2,87,47,45,2,86,45,43,2,85,43,41,2,84,41,39,2,83,39,
        37,2,82,37,35,2,81,35,33,2,80,33,31,2,79,31,29,2,78,29,27,2,77,27,25,2,
        76,25,23,2,75,23,21,2,74,21,19,2,73,19,17,2,72,17,15,2,71,15,13,2,70,13,
        11,2,69,11,9,2,68,9,7,2,67,7,5,2,66,5,3,2,65,3,1,2,99,98,97,1,99,102,
        100,1,103,102,101,1,105,104,103,1,105,108,106,1,109,108,107,1,109,112,
        110,1,113,112,111,1,115,114,113,1,115,118,116,1,117,120,118,1,121,120,
        119,1,123,122,121,1,123,126,124,1,127,126,125,1,129,128,127,1,129,132,
        130,1,133,132,131,1,135,134,133,1,137,136,135,1,139,138,137,1,141,140,
        139,1,143,142,141,1,143,146,144,1,147,146,145,1,149,148,147,1,151,150,
        149,1,153,152,151,1,155,154,153,1,157,156,155,1,159,158,157,1,134,40,38,
        2,101,3,5,2,152,58,56,2,119,21,23,2,100,6,4,2,137,39,41,2,118,24,22,2,
        59,153,57,2,136,42,40,2,103,5,7,2,154,60,58,2,121,23,25,2,102,8,6,2,43,
        137,41,2,120,26,24,2,61,155,59,2,138,44,42,2,105,7,9,2,156,62,60,2,123,
        25,27,2,8,106,10,2,141,43,45,2,122,28,26,2,63,157,61,2,140,46,44,2,107,
        9,11,2,158,64,62,2,125,27,29,2,106,12,10,2,47,141,45,2,28,126,30,2,97,
! ... 33 like lines cut
        98,160,1 /
! GEOM Vertices: 768 | Faces: 1536
&GEOM ID='LowerHeaterPlate_LowRes' SURF_ID='StainlessSteel'
      VERTS=0.000000,0.080000,0.025000,0.000000,0.080000,0.027000,0.007841,
        0.079615,0.025000,0.007841,0.079615,0.027000,0.015607,0.078463,0.025000,
        0.015607,0.078463,0.027000,0.023223,0.076555,0.025000,0.023223,0.076555,
        0.027000,0.030615,0.073910,0.025000,0.030615,0.073910,0.027000,0.037712,
        0.070554,0.025000,0.037712,0.070554,0.027000,0.044446,0.066518,0.025000,
        0.044446,0.066518,0.027000,0.050751,0.061841,0.025000,0.050751,0.061841,
        0.027000,0.056569,0.056569,0.025000,0.056569,0.056569,0.027000,0.061841,
        0.050751,0.025000,0.061841,0.050751,0.027000,0.066518,0.044446,0.025000,
        0.066518,0.044446,0.027000,0.070554,0.037712,0.025000,0.070554,0.037712,
        0.027000,0.073910,0.030615,0.025000,0.073910,0.030615,0.027000,0.076555,
        0.023223,0.025000,0.076555,0.023223,0.027000,0.078463,0.015607,0.025000,
        0.078463,0.015607,0.027000,0.079615,0.007841,0.025000,0.079615,0.007841,
        0.027000,0.080000,-0.000000,0.025000,0.080000,-0.000000,0.027000,
        0.079615,-0.007841,0.025000,0.079615,-0.007841,0.027000,0.078463,
        -0.015607,0.025000,0.078463,-0.015607,0.027000,0.076555,-0.023223,
        0.025000,0.076555,-0.023223,0.027000,0.073910,-0.030615,0.025000,
        0.073910,-0.030615,0.027000,0.070554,-0.037712,0.025000,0.070554,
        -0.037712,0.027000,0.066518,-0.044446,0.025000,0.066518,-0.044446,
        0.027000,0.061841,-0.050751,0.025000,0.061841,-0.050751,0.027000,
        0.056569,-0.056569,0.025000,0.056569,-0.056569,0.027000,0.050751,
        -0.061841,0.025000,0.050751,-0.061841,0.027000,0.044446,-0.066518,
! ... 86 like lines cut
      FACES=1,128,127,1,251,241,242,1,232,79,77,1,247,245,246,1,248,244,245,1,
        249,243,244,1,250,242,243,1,252,141,241,1,210,208,209,1,211,207,210,1,
        214,140,132,1,213,132,131,1,144,227,141,1,213,205,212,1,133,201,130,1,
        202,200,201,1,216,130,145,1,215,145,140,1,203,199,200,1,146,198,139,1,
        255,221,256,1,161,162,138,1,191,192,190,1,204,129,199,1,136,240,192,1,
        189,190,188,1,187,188,186,1,185,186,184,1,183,184,182,1,181,182,180,1,
        179,180,178,1,177,178,176,1,175,176,174,1,173,174,172,1,171,172,170,1,
        169,170,168,1,167,168,166,1,165,166,164,1,163,164,162,1,3,2,1,1,158,159,
        157,1,156,157,155,1,154,155,153,1,152,153,151,1,150,151,149,1,160,139,
        159,1,194,196,197,1,193,197,198,1,148,149,147,1,165,4,6,1,212,206,211,1,
        224,230,229,1,226,228,227,1,254,233,217,1,222,232,231,1,223,231,230,1,
        225,229,228,1,137,237,238,1,234,217,233,1,235,218,234,1,236,219,235,1,
        237,220,236,1,142,238,239,1,143,239,240,1,134,147,129,1,55,54,53,1,57,
        56,55,1,59,58,57,1,61,60,59,1,63,62,61,1,65,64,63,1,67,66,65,1,37,36,35,
        1,39,38,37,1,41,40,39,1,43,42,41,1,45,44,43,1,47,46,45,1,49,48,47,1,51,
        50,49,1,53,52,51,1,83,82,81,1,85,84,83,1,87,86,85,1,89,88,87,1,91,90,89,
        1,93,92,91,1,95,94,93,1,97,96,95,1,99,98,97,1,69,68,67,1,71,70,69,1,73,
        72,71,1,75,74,73,1,77,76,75,1,79,78,77,1,81,80,79,1,101,100,99,1,103,
        102,101,1,105,104,103,1,107,106,105,1,125,124,123,1,127,126,125,1,5,4,3,
        1,109,108,107,1,111,110,109,1,113,112,111,1,115,114,113,1,117,116,115,1,
        119,118,117,1,121,120,119,1,123,122,121,1,7,6,5,1,9,8,7,1,11,10,9,1,13,
! ... 71 like lines cut
        1 /

! GEOM Vertices: 768 | Faces: 1536
GEOM ID='UpperHeaterPlate_lowRes' SURF_ID='StainlessSteel'
      VERTS=0.000000,0.040000,0.092000,0.000000,0.040000,0.094000,0.003921,
        0.039807,0.092000,0.003921,0.039807,0.094000,0.007804,0.039231,0.092000,
        0.007804,0.039231,0.094000,0.011611,0.038278,0.092000,0.011611,0.038278,
        0.094000,0.015307,0.036955,0.092000,0.015307,0.036955,0.094000,0.018856,
        0.035277,0.092000,0.018856,0.035277,0.094000,0.022223,0.033259,0.092000,
        0.022223,0.033259,0.094000,0.025376,0.030920,0.092000,0.025376,0.030920,
        0.094000,0.028284,0.028284,0.092000,0.028284,0.028284,0.094000,0.030920,
        0.025376,0.092000,0.030920,0.025376,0.094000,0.033259,0.022223,0.092000,
        0.033259,0.022223,0.094000,0.035277,0.018856,0.092000,0.035277,0.018856,
        0.094000,0.036955,0.015307,0.092000,0.036955,0.015307,0.094000,0.038278,
        0.011611,0.092000,0.038278,0.011611,0.094000,0.039231,0.007804,0.092000,
        0.039231,0.007804,0.094000,0.039807,0.003921,0.092000,0.039807,0.003921,
        0.094000,0.040000,-0.000000,0.092000,0.040000,-0.000000,0.094000,
        0.039807,-0.003921,0.092000,0.039807,-0.003921,0.094000,0.039231,
        -0.007804,0.092000,0.039231,-0.007804,0.094000,0.038278,-0.011611,
        0.092000,0.038278,-0.011611,0.094000,0.036955,-0.015307,0.092000,
        0.036955,-0.015307,0.094000,0.035277,-0.018856,0.092000,0.035277,
        -0.018856,0.094000,0.033259,-0.022223,0.092000,0.033259,-0.022223,
        0.094000,0.030920,-0.025376,0.092000,0.030920,-0.025376,0.094000,
        0.028284,-0.028284,0.092000,0.028284,-0.028284,0.094000,0.025376,
        -0.030920,0.092000,0.025376,-0.030920,0.094000,0.022223,-0.033259,
! ... 86 like lines cut
      FACES=1,128,127,1,169,1,127,1,129,3,1,1,3,133,5,1,133,7,5,1,7,137,9,1,137,
        11,9,1,139,13,11,1,141,15,13,1,15,145,17,1,21,237,23,1,256,19,147,1,206,
        107,105,1,23,236,25,1,25,235,27,1,235,29,27,1,234,31,29,1,233,33,31,1,
        232,35,33,1,231,37,35,1,230,39,37,1,229,41,39,1,45,227,251,1,145,19,17,
        1,47,184,49,1,49,183,51,1,51,182,53,1,53,181,55,1,55,180,57,1,57,179,59,
        1,59,178,61,1,61,177,63,1,63,176,65,1,176,67,65,1,175,69,67,1,174,71,69,
        1,173,73,71,1,172,75,73,1,171,77,75,1,150,79,77,1,149,81,79,1,215,85,
        249,1,185,45,251,1,152,83,81,1,87,214,89,1,89,213,91,1,91,212,93,1,93,
        211,95,1,95,210,97,1,97,209,99,1,99,208,101,1,101,207,103,1,207,105,103,
        1,109,205,254,1,85,151,249,1,153,113,111,1,113,157,115,1,115,159,117,1,
        117,161,119,1,161,121,119,1,163,123,121,1,170,129,169,1,154,155,153,1,
        130,131,129,1,146,147,145,1,144,145,143,1,142,143,141,1,140,141,139,1,
        138,139,137,1,136,137,135,1,134,135,133,1,132,133,131,1,168,169,167,1,
        166,167,165,1,164,165,163,1,162,163,161,1,160,161,159,1,158,159,157,1,
        156,157,155,1,252,227,248,1,185,187,184,1,184,188,183,1,183,189,182,1,
        182,190,181,1,181,191,180,1,180,192,179,1,179,193,178,1,178,194,177,1,
        177,195,176,1,176,196,175,1,175,197,174,1,174,198,173,1,173,199,172,1,
        172,200,171,1,171,201,150,1,150,202,149,1,149,203,152,1,152,204,151,1,
        148,256,147,1,250,151,204,1,216,214,215,1,217,213,214,1,218,212,213,1,
        219,211,212,1,220,210,211,1,221,209,210,1,222,208,209,1,223,207,208,1,
        224,206,207,1,225,205,206,1,255,153,254,1,256,238,237,1,237,239,236,1,
! ... 71 like lines cut
        186,185,251,1,228,227,43,1 /

##################
#### Analysis ####
##################

***** Boundaries *******************

&BNDF QUANTITY='TOTAL HEAT FLUX' CELL_CENTERED=T /
&BNDF QUANTITY='RADIATIVE HEAT FLUX' CELL_CENTERED=T /
&BNDF QUANTITY='CONVECTIVE HEAT FLUX' CELL_CENTERED=T /
&BNDF QUANTITY='CONVECTIVE HEAT FLUX GAUGE' CELL_CENTERED=T /
&BNDF QUANTITY='INCIDENT HEAT FLUX' CELL_CENTERED=T /
&BNDF QUANTITY='GAUGE HEAT FLUX' CELL_CENTERED=T /
&BNDF QUANTITY='RADIOMETER' CELL_CENTERED=T /
&BNDF QUANTITY='REFERENCE_HEAT_FLUX' CELL_CENTERED=T /
&BNDF QUANTITY='HEAT TRANSFER COEFFICIENT' CELL_CENTERED=T /
&BNDF QUANTITY='HRRPUA' CELL_CENTERED=T /
&BNDF QUANTITY='WALL TEMPERATURE' CELL_CENTERED=T /
&BNDF QUANTITY='ADIABATIC SURFACE TEMPERATURE' CELL_CENTERED=T /
&BNDF QUANTITY='GAS TEMPERATURE' CELL_CENTERED=T /


***** Slice Files *******************

&SLCF PBX           = 0.0,
      QUANTITY      = 'TEMPERATURE',
      VECTOR        = .TRUE.,
      CELL_CENTERED = .TRUE./

&SLCF PBX           = 0.0,
      QUANTITY      = 'EFFECTIVE FLAME TEMPERATURE',
      VECTOR        = .TRUE.,
      CELL_CENTERED = .TRUE./

&SLCF PBX           = 0.0,
      QUANTITY      = 'HRRPUV',
      VECTOR        = .TRUE.,
      CELL_CENTERED = .TRUE./

&SLCF PBX           = 0.0,
      QUANTITY      = 'VELOCITY',
      VECTOR        = .TRUE.,
      CELL_CENTERED = .FALSE./

&TAIL /