&HEAD CHID='LFS_geom_5mm', TITLE='Lateral Flame Spread | Geometry with calibrated heater (geom) - gridsize 5mm - Parameter from Cone_C5_PMMACN_h_rep99' /

&TIME T_END=3600, WALL_INCREMENT=1 /

&MISC SIMULATION_MODE='LES', RESTART=.FALSE., BNDF_DEFAULT=.TRUE., SOLID_PHASE_ONLY=.FALSE. /
&DUMP NFRAMES=3600, DT_BNDF=10, DT_SLCF=10, DT_DEVC=1, DT_RESTART=300 /
&RADI NUMBER_RADIATION_ANGLES=100 /

***** Meshes ******************

&MESH IJK = 8,60,60, XB = -0.135,-0.095,-0.29,0.01,-0.085,0.215, MULT_ID = 'MESH' /
&MULT ID = 'MESH', DX = 0.04, DY = 0.0, DZ = 0.0, I_UPPER = 23, J_UPPER = 0, K_UPPER = 0  /

***** Open Vents ******************

&VENT MB = 'XMIN',SURF_ID = 'OPEN'/
&VENT MB = 'XMAX',SURF_ID = 'OPEN'/
&VENT MB = 'YMIN',SURF_ID = 'OPEN'/
&VENT MB = 'YMAX',SURF_ID = 'OPEN'/
&VENT MB = 'ZMIN',SURF_ID = 'OPEN'/
&VENT MB = 'ZMAX',SURF_ID = 'OPEN'/

***** REAC Parameters *************

&SPEC ID='MMA', FORMULA='C5H8O2', SPECIFIC_HEAT=1.1, RADCAL_ID='MMA', SIGMALJ=4.701, EPSILONKLJ=205.78 /

&REAC FUEL='MMA', SOOT_YIELD=0.022, CO_YIELD=0.01, RADIATIVE_FRACTION=0.31 /  Tewarson, 4th SFPE Handbook, Table 3-4.16


##################
#### Outputs ####
##################

***** Boundaries *******************

&BNDF QUANTITY='RADIATIVE HEAT FLUX', CELL_CENTERED=.TRUE./
&BNDF QUANTITY='INCIDENT HEAT FLUX', CELL_CENTERED=.TRUE./
&BNDF QUANTITY='NET HEAT FLUX', CELL_CENTERED=.TRUE./
&BNDF QUANTITY='GAUGE HEAT FLUX', CELL_CENTERED=.TRUE./
&BNDF QUANTITY='CONVECTIVE HEAT FLUX', CELL_CENTERED=.TRUE./
&BNDF QUANTITY='HEAT TRANSFER COEFFICIENT', CELL_CENTERED=.TRUE./
&BNDF QUANTITY='WALL TEMPERATURE', CELL_CENTERED=.TRUE./
&BNDF QUANTITY='HRRPUA', CELL_CENTERED=.TRUE./
&BNDF QUANTITY='BURNING RATE', CELL_CENTERED=.TRUE./
&BNDF QUANTITY='WALL THICKNESS', CELL_CENTERED=.TRUE./

***** Slices *******************

&SLCF QUANTITY='HRRPUV', CELL_CENTERED=.TRUE., PBY=-0.001 /
&SLCF QUANTITY='TEMPERATURE', CELL_CENTERED=.TRUE., PBY=-0.001 /

***** Devices *******************

&DEVC XBP = 0.005, 0.765, 0.0, 0.0, 0.001, 0.001, IOR=-2, QUANTITY='HRRPUA', ID='HRRPUA_bot', POINTS=77, TIME_HISTORY=T /
&DEVC XBP = 0.005, 0.765, 0.0, 0.0, 0.065, 0.065, IOR=-2, QUANTITY='HRRPUA', ID='HRRPUA_mid', POINTS=77, TIME_HISTORY=T /
&DEVC XBP = 0.005, 0.765, 0.0, 0.0, 0.129, 0.129, IOR=-2, QUANTITY='HRRPUA', ID='HRRPUA_top', POINTS=77, TIME_HISTORY=T /

&DEVC XBP = 0.005, 0.765, 0.0, 0.0, 0.001, 0.001, IOR=-2, QUANTITY='GAUGE HEAT FLUX', ID='GHF_bot', POINTS=77, TIME_HISTORY=T /
&DEVC XBP = 0.005, 0.765, 0.0, 0.0, 0.065, 0.065, IOR=-2, QUANTITY='GAUGE HEAT FLUX', ID='GHF_mid', POINTS=77, TIME_HISTORY=T /
&DEVC XBP = 0.005, 0.765, 0.0, 0.0, 0.129, 0.129, IOR=-2, QUANTITY='GAUGE HEAT FLUX', ID='GHF_top', POINTS=77, TIME_HISTORY=T /

&DEVC XBP = 0.005, 0.765, 0.0, 0.0, 0.001, 0.001, IOR=-2, QUANTITY='WALL TEMPERATURE', ID='WT_bot', POINTS=77, TIME_HISTORY=T /
&DEVC XBP = 0.005, 0.765, 0.0, 0.0, 0.065, 0.065, IOR=-2, QUANTITY='WALL TEMPERATURE', ID='WT_mid', POINTS=77, TIME_HISTORY=T /
&DEVC XBP = 0.005, 0.765, 0.0, 0.0, 0.129, 0.129, IOR=-2, QUANTITY='WALL TEMPERATURE', ID='WT_top', POINTS=77, TIME_HISTORY=T /

&DEVC XBP = 0.005, 0.765, 0.0, 0.0, 0.001, 0.001, IOR=-2, QUANTITY='INSIDE WALL TEMPERATURE', ID='IWT_bot', DEPTH=0.006, POINTS=77, TIME_HISTORY=T /
&DEVC XBP = 0.005, 0.765, 0.0, 0.0, 0.065, 0.065, IOR=-2, QUANTITY='INSIDE WALL TEMPERATURE', ID='IWT_mid', DEPTH=0.006, POINTS=77, TIME_HISTORY=T /
&DEVC XBP = 0.005, 0.765, 0.0, 0.0, 0.129, 0.129, IOR=-2, QUANTITY='INSIDE WALL TEMPERATURE', ID='IWT_top', DEPTH=0.006, POINTS=77, TIME_HISTORY=T /

##################
#### Geometry ####
##################

***** Materials *******************

&MATL ID = 'PMMA_CN_6mm', DENSITY = 1139.2407407407409, CONDUCTIVITY_RAMP = 'k_PMMA',
      SPECIFIC_HEAT_RAMP = 'cp_PMMA', EMISSIVITY = 0.96, ABSORPTION_COEFFICIENT = 2870 /

&RAMP ID='k_PMMA', T= 20., F=0.160 /
&RAMP ID='k_PMMA', T=122., F=0.160 /
&RAMP ID='k_PMMA', T=500., F=0.015 /

&RAMP ID='cp_PMMA', T= 20., F=1.05 /
&RAMP ID='cp_PMMA', T=122., F=1.90 /
&RAMP ID='cp_PMMA', T=500., F=3.22 /

&MATL ID            = 'PROMATECT'
      EMISSIVITY    = 0.9
      DENSITY       = 450.
      SPECIFIC_HEAT = 0.95
      CONDUCTIVITY_RAMP = 'k_PROMAT LS' /

&RAMP ID='k_PROMAT LS', T= 20., F=0.08 /
&RAMP ID='k_PROMAT LS', T=200., F=0.10 /
&RAMP ID='k_PROMAT LS', T=400., F=0.11 /

&MATL ID            = 'STEEL'
      EMISSIVITY    = 0.9
      DENSITY       = 7800.
      SPECIFIC_HEAT = 0.465        
      CONDUCTIVITY  = 43. /

&SURF ID            = 'steelframe'
      MATL_ID       = 'STEEL'
      THICKNESS     = 0.003
      RGB           = 118,118,117 /

&SURF ID                      = 'PMMA_back',
      COLOR                   = 'BEIGE',
      BACKING                 = 'EXPOSED',
      THICKNESS(1:2)          = 0.03, 0.006,
      MATL_ID(1,1:1)          = 'PROMATECT',
      MATL_ID(2,1:1)          = 'PMMA_CN_6mm' /

&SURF ID                      = 'PMMA_CN_front',
      FYI                     = 'Parameter from Cone_C5_PMMACN_h_rep99',
      COLOR                   = 'BLACK',
      CELL_SIZE_FACTOR        = 1.0,
      STRETCH_FACTOR(1:1)     = 1.0,
      BACKING                 = 'EXPOSED',
      THICKNESS(1:2)          = 0.006, 0.03,
      MATL_ID(1,1:1)          = 'PMMA_CN_6mm',
      MATL_ID(2,1:1)          = 'PROMATECT',
      HRRPUA                  = 1.0,
      RAMP_Q                  = 'CONE_HRRPUA_25', 'CONE_HRRPUA_50', 'CONE_HRRPUA_75',
      REFERENCE_HEAT_FLUX     = 25,50,75,
      IGNITION_TEMPERATURE    = 340.7745079335275,
      HEAT_OF_VAPORIZATION    = 2029.3588585067885 /

***** Radiant Panel ***************

&SURF ID='Panel', RGB=255,40,0, TMP_FRONT=880, EMISSIVITY=1 /

&GEOM ID='block', SURF_ID6='steelframe','steelframe','steelframe','Panel','steelframe','steelframe', XB=-0.125,0.355,-0.125,-0.175,-0.075,0.205, MOVE_ID='spin' /
&MOVE ID='spin', ROTATION_ANGLE=-15., X0=-0.125, Y0=-0.125, Z0=0., AXIS=0,0,1 /

***** Sample and Frame ***************

&OBST XB = 0.00, 0.77, 0.0, 0.05, 0.0, 0.13, SURF_ID6 = 'INERT','INERT','PMMA_CN_front','PMMA_back','INERT','INERT' /

&OBST XB = -0.02, 0.00, -0.003, 0.05, -0.02, 0.15, SURF_ID = 'steelframe' /
&OBST XB = 0.770, 0.79, -0.003, 0.05, -0.02, 0.15, SURF_ID = 'steelframe' /
&OBST XB = 0.000, 0.77, -0.003, 0.05, 0.130, 0.15, SURF_ID = 'steelframe' /
&OBST XB = 0.000, 0.77, -0.003, 0.05, -0.02, 0.00, SURF_ID = 'steelframe' /

#Cone Ramps for SPyro
CONE_RAMP for 25 kW/m²
&RAMP ID = 'CONE_HRRPUA_25', T = 0, F = 175.8 /
&RAMP ID = 'CONE_HRRPUA_25', T = 5, F = 252.9 /
&RAMP ID = 'CONE_HRRPUA_25', T = 10, F = 281.9 /
&RAMP ID = 'CONE_HRRPUA_25', T = 15, F = 292.5 /
&RAMP ID = 'CONE_HRRPUA_25', T = 20, F = 305.9 /
&RAMP ID = 'CONE_HRRPUA_25', T = 25, F = 312.6 /
&RAMP ID = 'CONE_HRRPUA_25', T = 30, F = 313.2 /
&RAMP ID = 'CONE_HRRPUA_25', T = 35, F = 307.3 /
&RAMP ID = 'CONE_HRRPUA_25', T = 40, F = 319.3 /
&RAMP ID = 'CONE_HRRPUA_25', T = 45, F = 316.8 /
&RAMP ID = 'CONE_HRRPUA_25', T = 50, F = 315.9 /
&RAMP ID = 'CONE_HRRPUA_25', T = 55, F = 321.7 /
&RAMP ID = 'CONE_HRRPUA_25', T = 60, F = 328.7 /
&RAMP ID = 'CONE_HRRPUA_25', T = 65, F = 324.5 /
&RAMP ID = 'CONE_HRRPUA_25', T = 70, F = 320.9 /
&RAMP ID = 'CONE_HRRPUA_25', T = 75, F = 329.8 /
&RAMP ID = 'CONE_HRRPUA_25', T = 80, F = 329.4 /
&RAMP ID = 'CONE_HRRPUA_25', T = 85, F = 334.5 /
&RAMP ID = 'CONE_HRRPUA_25', T = 90, F = 338.5 /
&RAMP ID = 'CONE_HRRPUA_25', T = 95, F = 331.8 /
! ... 99 like lines cut

CONE_RAMP for 50 kW/m²
&RAMP ID = 'CONE_HRRPUA_50', T = 0, F = 233.8 /
&RAMP ID = 'CONE_HRRPUA_50', T = 5, F = 424.6 /
&RAMP ID = 'CONE_HRRPUA_50', T = 10, F = 477.7 /
&RAMP ID = 'CONE_HRRPUA_50', T = 15, F = 500.3 /
&RAMP ID = 'CONE_HRRPUA_50', T = 20, F = 524.4 /
&RAMP ID = 'CONE_HRRPUA_50', T = 25, F = 520.1 /
&RAMP ID = 'CONE_HRRPUA_50', T = 30, F = 525.9 /
&RAMP ID = 'CONE_HRRPUA_50', T = 35, F = 523.1 /
&RAMP ID = 'CONE_HRRPUA_50', T = 40, F = 536.1 /
&RAMP ID = 'CONE_HRRPUA_50', T = 45, F = 542.9 /
&RAMP ID = 'CONE_HRRPUA_50', T = 50, F = 540.3 /
&RAMP ID = 'CONE_HRRPUA_50', T = 55, F = 538.2 /
&RAMP ID = 'CONE_HRRPUA_50', T = 60, F = 548.4 /
&RAMP ID = 'CONE_HRRPUA_50', T = 65, F = 536.0 /
&RAMP ID = 'CONE_HRRPUA_50', T = 70, F = 552.3 /
&RAMP ID = 'CONE_HRRPUA_50', T = 75, F = 571.0 /
&RAMP ID = 'CONE_HRRPUA_50', T = 80, F = 553.7 /
&RAMP ID = 'CONE_HRRPUA_50', T = 85, F = 566.8 /
&RAMP ID = 'CONE_HRRPUA_50', T = 90, F = 582.4 /
&RAMP ID = 'CONE_HRRPUA_50', T = 95, F = 568.6 /
! ... 113 like lines cut

CONE_RAMP for 75 kW/m²
&RAMP ID = 'CONE_HRRPUA_75', T = 0, F = 170.9 /
&RAMP ID = 'CONE_HRRPUA_75', T = 5, F = 503.1 /
&RAMP ID = 'CONE_HRRPUA_75', T = 10, F = 660.4 /
&RAMP ID = 'CONE_HRRPUA_75', T = 15, F = 716.5 /
&RAMP ID = 'CONE_HRRPUA_75', T = 20, F = 754.0 /
&RAMP ID = 'CONE_HRRPUA_75', T = 25, F = 761.7 /
&RAMP ID = 'CONE_HRRPUA_75', T = 30, F = 803.0 /
&RAMP ID = 'CONE_HRRPUA_75', T = 35, F = 776.8 /
&RAMP ID = 'CONE_HRRPUA_75', T = 40, F = 794.5 /
&RAMP ID = 'CONE_HRRPUA_75', T = 45, F = 762.5 /
&RAMP ID = 'CONE_HRRPUA_75', T = 50, F = 787.4 /
&RAMP ID = 'CONE_HRRPUA_75', T = 55, F = 810.0 /
&RAMP ID = 'CONE_HRRPUA_75', T = 60, F = 783.6 /
&RAMP ID = 'CONE_HRRPUA_75', T = 65, F = 819.0 /
&RAMP ID = 'CONE_HRRPUA_75', T = 70, F = 797.2 /
&RAMP ID = 'CONE_HRRPUA_75', T = 75, F = 835.6 /
&RAMP ID = 'CONE_HRRPUA_75', T = 80, F = 826.7 /
&RAMP ID = 'CONE_HRRPUA_75', T = 85, F = 811.5 /
&RAMP ID = 'CONE_HRRPUA_75', T = 90, F = 837.6 /
&RAMP ID = 'CONE_HRRPUA_75', T = 95, F = 866.0 /
! ... 116 like lines cut

&TAIL /